<?xml version="1.0" encoding="UTF-8"?>

<!-- generated on 2022-01-20 17:33:34 by Eclipse SUMO netedit Version 1.11.0
<configuration xmlns:xsi="http://www.w3.org/2001/XMLSchema-instance" xsi:noNamespaceSchemaLocation="http://sumo.dlr.de/xsd/netconvertConfiguration.xsd">

    <input>
        <sumo-net-file value="/home/ross/sumo_example/circles.net.xml"/>
    </input>

    <output>
        <output-file value="/home/ross/sumo_example/circles.net.xml"/>
    </output>

    <processing>
        <geometry.min-radius.fix.railways value="false"/>
        <geometry.max-grade.fix value="false"/>
        <offset.disable-normalization value="true"/>
        <lefthand value="false"/>
    </processing>

    <junctions>
        <no-turnarounds value="true"/>
        <junctions.corner-detail value="5"/>
        <junctions.limit-turn-speed value="5.5"/>
        <rectangular-lane-cut value="false"/>
    </junctions>

    <pedestrian>
        <walkingareas value="false"/>
    </pedestrian>

    <netedit>
        <additional-files value="/home/ross/sumo_example/circles.add.xml"/>
        <route-files value="/home/ross/sumo_example/circles.rou.xml"/>
    </netedit>

    <report>
        <aggregate-warnings value="5"/>
    </report>

</configuration>
-->

<additional xmlns:xsi="http://www.w3.org/2001/XMLSchema-instance" xsi:noNamespaceSchemaLocation="http://sumo.dlr.de/xsd/additional_file.xsd">
    <rerouter id="rerouter_0" edges="edge2" pos="58.36,49.74">
        <interval begin="0.00" end="3600.00">
            <destProbReroute id="edge1" probability="1.00"/>
        </interval>
    </rerouter>
    <rerouter id="rerouter_1" edges="edge1" pos="-5.92,52.17">
        <interval begin="0.00" end="3600.00">
            <destProbReroute id="edge2" probability="1.00"/>
        </interval>
    </rerouter>
</additional>
