<?xml version="1.0" encoding="UTF-8"?>

<!-- generated on 2022-01-20 17:23:41 by Eclipse SUMO netedit Version 1.11.0
-->

<routes xmlns:xsi="http://www.w3.org/2001/XMLSchema-instance" xsi:noNamespaceSchemaLocation="http://sumo.dlr.de/xsd/routes_file.xsd">
    <route edges="E1 E2 edge2 E4" color="yellow" id="route_0"/>
    <flow id="flow_0" begin="0.00" route="route_0" end="0.00" number="2"/>
</routes>
