<?xml version="1.0" encoding="UTF-8"?>

<!-- generated on 2022-02-12 11:41:33 by Eclipse SUMO netedit Version 1.11.0
-->

<routes xmlns:xsi="http://www.w3.org/2001/XMLSchema-instance" xsi:noNamespaceSchemaLocation="http://sumo.dlr.de/xsd/routes_file.xsd">
   <vType id="Car" maxSpeed="10E-20" />
   <route edges="E51 E52" color="yellow" id="route_0"/>
    <route edges="E45 E46" color="yellow" id="route_1"/>
    <route edges="E55 E56" color="yellow" id="route_2"/>
    <route edges="E43 E44" color="yellow" id="route_3"/>
    <route edges="E39 E40" color="yellow" id="route_4"/>
    <route edges="E53 E54" color="yellow" id="route_5"/>
    <route edges="E47 E48" color="yellow" id="route_6"/>
    <route edges="E49 E50" color="yellow" id="route_7"/>
    <route edges="E41 E42" color="yellow" id="route_8"/>
    <vehicle id="vehicle_0" depart="0.00" route="route_2" type="Car" />
    <vehicle id="vehicle_1" depart="0.00" route="route_1" type="Car" />
    <vehicle id="vehicle_2" depart="0.00" route="route_0" type="Car" />
    <vehicle id="vehicle_3" depart="0.00" route="route_8" type="Car" />
    <vehicle id="vehicle_4" depart="0.00" route="route_7" type="Car" />
    <vehicle id="vehicle_5" depart="0.00" route="route_6" type="Car" />
    <vehicle id="vehicle_6" depart="0.00" route="route_5" type="Car" />
    <vehicle id="vehicle_7" depart="0.00" route="route_3" type="Car" />
    <vehicle id="vehicle_8" depart="0.00" route="route_4" type="Car" />
    <vehicle id="vehicle_9" depart="0.00" route="route_7" type="Car" />
</routes>
