<?xml version="1.0" encoding="UTF-8"?>

<!-- generated on 2022-02-03 11:23:51 by Eclipse SUMO netedit Version 1.11.0
-->

<routes xmlns:xsi="http://www.w3.org/2001/XMLSchema-instance" xsi:noNamespaceSchemaLocation="http://sumo.dlr.de/xsd/routes_file.xsd">
    <route edges="1 E3" color="yellow" id="route_0"/>
    <route edges="-E3 -E2" color="yellow" id="route_1"/>
    <vehicle id="vehicle_0" depart="10.00" arrivalSpeed="10.00" route="route_0"/>
    <vehicle id="vehicle_1" depart="10.00" route="route_1"/>
</routes>
