<?xml version="1.0" encoding="UTF-8"?>

<!-- generated on 2022-02-02 19:23:19 by Eclipse SUMO GUI Version 1.11.0
-->

<configuration xmlns:xsi="http://www.w3.org/2001/XMLSchema-instance" xsi:noNamespaceSchemaLocation="http://sumo.dlr.de/xsd/sumoConfiguration.xsd">

    <input>
        <net-file value="/home/ross/sumo_example/two_cars/twoCars.net.xml"/>
        <route-files value="/home/ross/sumo_example/two_cars/twoCars.rou.xml"/>
    </input>

</configuration>
